@<TRIPOS>MOLECULE
1pmv_s_p_entry_00001_conf_01
25 28 1
SMALL
NO_CHARGES


@<TRIPOS>ATOM
      1 C1         21.9459   31.1637   20.9806 C.2       1 537501      0.0000
      2 C2         20.7923   30.8315   20.2118 C.2       1 537501      0.0000
      3 C3         20.4683   29.4875   19.9546 C.2       1 537501      0.0000
      4 C4         21.3146   28.4222   20.4829 C.2       1 537501      0.0000
      5 C5         22.4669   28.7764   21.2512 C.2       1 537501      0.0000
      6 C6         22.7858   30.1423   21.5002 C.2       1 537501      0.0000
      7 C11        19.0112   27.7461   18.9468 C.2       1 537501      0.0000
      8 C12        17.8815   27.5009   18.2037 C.2       1 537501      0.0000
      9 C13        17.4482   26.2130   17.8825 C.2       1 537501      0.0000
     10 C14        18.2117   25.0901   18.3515 C.2       1 537501      0.0000
     11 C15        19.3919   25.2843   19.1325 C.2       1 537501      0.0000
     12 C16        19.8092   26.6216   19.4419 C.2       1 537501      0.0000
     13 C20        21.0117   26.9647   20.2509 C.2       1 537501      0.0000
     14 C21        19.2450   29.1241   19.1470 C.2       1 537501      0.0000
     15 O22        21.7388   26.0734   20.7062 O.2       1 537501      0.0000
     16 N23        18.2364   29.8066   18.5020 N.2       1 537501      0.0000
     17 N24        17.4369   28.7791   17.9475 N.2       1 537501      0.0000
     18 H1         22.1835   32.2005   21.1692 H         1 537501      0.0000
     19 H2         20.1618   31.6177   19.8238 H         1 537501      0.0000
     20 H5         23.1036   27.9994   21.6479 H         1 537501      0.0000
     21 H6         23.6599   30.3992   22.0794 H         1 537501      0.0000
     22 H13        16.5557   26.0635   17.2927 H         1 537501      0.0000
     23 H14        17.8902   24.0876   18.1103 H         1 537501      0.0000
     24 H15        19.9618   24.4372   19.4844 H         1 537501      0.0000
     25 H24        16.6051   28.9677   17.4059 H         1 537501      0.0000
@<TRIPOS>BOND
     1    1    2 ar
     2    1    6 ar
     3    1   18 1
     4    2    3 ar
     5    2   19 1
     6    3    4 ar
     7    3   14 ar
     8    4    5 ar
     9    4   13 ar
    10    5    6 ar
    11    5   20 1
    12    6   21 1
    13    7    8 ar
    14    7   12 ar
    15    7   14 ar
    16    8    9 ar
    17    8   17 ar
    18    9   10 ar
    19    9   22 1
    20   10   11 ar
    21   10   23 1
    22   11   12 ar
    23   11   24 1
    24   12   13 ar
    25   13   15 2
    26   14   16 ar
    27   16   17 ar
    28   17   25 1
@<TRIPOS>SUBSTRUCTURE
1 537501 1
@<TRIPOS>COMMENT
1pmv_s_p
PLANTSproteinTorsions
1
749 240.6159
PLANTSmolcadARTstart hb
PLANTSmolcadARTstart HB
LINES
16.6051 28.9677 17.4059 15.651 29.947 16.115 0 255 0 5
18.2364 29.8066 18.502 18.119 31.845 18.014 0 255 0 5
PLANTSmolcadARTstart HBCH
LINES
PLANTSmolcadARTstart HB-CHO
LINES
PLANTSmolcadARTend
PLANTSmolcadARTstart HB_WATER
LINES
PLANTSmolcadARTend

PLANTSmolcadARTend

