# created with PyMOL 2.3.2
@<TRIPOS>MOLECULE
1pmv_s_p
25 28 1                 
SMALL
USER_CHARGES
@<TRIPOS>ATOM
1	  C1	22.016	31.290	21.128	C.2	1	537501	0.000	
2	  C2	20.912	31.009	20.271	C.2	1	537501	0.000	
3	  C3	20.529	29.681	20.012	C.2	1	537501	0.000	
4	  C4	21.262	28.580	20.629	C.2	1	537501	0.000	
5	  C5	22.366	28.883	21.485	C.2	1	537501	0.000	
6	  C6	22.746	30.233	21.735	C.2	1	537501	0.000	
7	 C11	19.057	28.006	18.917	C.2	1	537501	0.000	
8	 C12	17.980	27.811	18.086	C.2	1	537501	0.000	
9	 C13	17.497	26.544	17.753	C.2	1	537501	0.000	
10	 C14	18.149	25.389	18.305	C.2	1	537501	0.000	
11	 C15	19.270	25.531	19.179	C.2	1	537501	0.000	
12	 C16	19.741	26.848	19.498	C.2	1	537501	0.000	
13	 C20	20.891	27.138	20.399	C.2	1	537501	0.000	
14	 C21	19.357	29.372	19.111	C.2	1	537501	0.000	
15	 O22	21.522	26.216	20.930	O.2	1	537501	0.000	
16	 N23	18.449	30.098	18.371	N.2	1	537501	0.000	
17	 N24	17.637	29.107	17.770	N.2	1	537501	0.000	
18	  H1	22.300	32.315	21.317	 H	1	537501	0.000	
19	  H2	20.365	31.822	19.817	 H	1	537501	0.000	
20	  H5	22.919	28.079	21.948	 H	1	537501	0.000	
21	  H6	23.583	30.451	22.381	 H	1	537501	0.000	
22	 H13	16.649	26.434	17.093	 H	1	537501	0.000	
23	 H14	17.788	24.402	18.056	 H	1	537501	0.000	
24	 H15	19.756	24.660	19.593	 H	1	537501	0.000	
25	 H24	16.866	29.332	17.157	 H	1	537501	0.000	
@<TRIPOS>BOND
1 1 2 ar
2 1 6 ar
3 1 18 1
4 2 3 ar
5 2 19 1
6 3 4 ar
7 3 14 ar
8 4 5 ar
9 4 13 ar
10 5 6 ar
11 5 20 1
12 6 21 1
13 7 8 ar
14 7 12 ar
15 7 14 ar
16 8 9 ar
17 8 17 ar
18 9 10 ar
19 9 22 1
20 10 11 ar
21 10 23 1
22 11 12 ar
23 11 24 1
24 12 13 ar
25 13 15 2
26 14 16 ar
27 16 17 ar
28 17 25 1
@<TRIPOS>SUBSTRUCTURE
1	537501	1	GROUP	1 A	537
