
     RDKit          3D

 46 47  0  0  0  0  0  0  0  0999 V2000
   -0.6742   -1.7797   -0.5125 C   0  0  0  0  0  0  0  0  0  0  0  0
   -1.0718   -0.4367   -0.3255 C   0  0  0  0  0  0  0  0  0  0  0  0
   -0.0849    0.5757   -0.1405 C   0  0  0  0  0  0  0  0  0  0  0  0
    1.2664    0.1222   -0.1773 C   0  0  0  0  0  0  0  0  0  0  0  0
    1.6513   -1.2068   -0.3670 C   0  0  0  0  0  0  0  0  0  0  0  0
    0.6663   -2.1966   -0.5378 C   0  0  0  0  0  0  0  0  0  0  0  0
    3.0770   -1.2491   -0.3383 C   0  0  0  0  0  0  0  0  0  0  0  0
    3.5433    0.0287   -0.1352 C   0  0  0  0  0  0  0  0  0  0  0  0
    2.4432    0.8410   -0.0433 N   0  0  0  0  0  0  0  0  0  0  0  0
   -0.3790    2.0556    0.0834 C   0  0  0  0  0  0  0  0  0  0  0  0
   -2.5805   -0.1644   -0.3294 C   0  0  0  0  0  0  0  0  0  0  0  0
   -3.2647   -0.8444    0.8773 C   0  0  0  0  0  0  0  0  0  0  0  0
   -0.9793    2.7515   -1.1411 C   0  0  0  0  0  0  0  0  0  0  0  0
    4.9323    0.5560   -0.0213 C   0  0  0  0  0  0  0  0  0  0  0  0
    5.3933    0.6117    1.4266 C   0  0  0  0  0  0  0  0  0  0  0  0
   -3.2147   -0.5663   -1.6696 C   0  0  0  0  0  0  0  0  0  0  0  0
    0.9630   -3.6556   -0.7461 C   0  0  0  0  0  0  0  0  0  0  0  0
   -4.7110   -0.4087    1.0729 C   0  0  0  0  0  0  0  0  0  0  0  0
   -1.1315    2.3530    1.3835 C   0  0  0  0  0  0  0  0  0  0  0  0
   -1.4374   -2.5467   -0.6444 H   0  0  0  0  0  0  0  0  0  0  0  0
    3.6954   -2.1293   -0.4539 H   0  0  0  0  0  0  0  0  0  0  0  0
    2.4878    1.8378    0.1053 H   0  0  0  0  0  0  0  0  0  0  0  0
    0.5835    2.5608    0.2252 H   0  0  0  0  0  0  0  0  0  0  0  0
   -2.7646    0.9028   -0.2335 H   0  0  0  0  0  0  0  0  0  0  0  0
   -2.7096   -0.6021    1.7928 H   0  0  0  0  0  0  0  0  0  0  0  0
   -3.2386   -1.9360    0.7771 H   0  0  0  0  0  0  0  0  0  0  0  0
   -1.0263    3.8340   -0.9775 H   0  0  0  0  0  0  0  0  0  0  0  0
   -1.9906    2.4184   -1.3809 H   0  0  0  0  0  0  0  0  0  0  0  0
   -0.3586    2.5771   -2.0273 H   0  0  0  0  0  0  0  0  0  0  0  0
    4.9901    1.5580   -0.4630 H   0  0  0  0  0  0  0  0  0  0  0  0
    5.6148   -0.0820   -0.5951 H   0  0  0  0  0  0  0  0  0  0  0  0
    6.4168    0.9954    1.4842 H   0  0  0  0  0  0  0  0  0  0  0  0
    4.7504    1.2681    2.0230 H   0  0  0  0  0  0  0  0  0  0  0  0
    5.3765   -0.3824    1.8865 H   0  0  0  0  0  0  0  0  0  0  0  0
   -3.2421   -1.6525   -1.8050 H   0  0  0  0  0  0  0  0  0  0  0  0
   -4.2438   -0.1997   -1.7406 H   0  0  0  0  0  0  0  0  0  0  0  0
   -2.6574   -0.1366   -2.5097 H   0  0  0  0  0  0  0  0  0  0  0  0
    0.5023   -4.2496    0.0500 H   0  0  0  0  0  0  0  0  0  0  0  0
    0.5665   -3.9847   -1.7121 H   0  0  0  0  0  0  0  0  0  0  0  0
    2.0375   -3.8588   -0.7370 H   0  0  0  0  0  0  0  0  0  0  0  0
   -5.3436   -0.7326    0.2414 H   0  0  0  0  0  0  0  0  0  0  0  0
   -5.1152   -0.8523    1.9885 H   0  0  0  0  0  0  0  0  0  0  0  0
   -4.7854    0.6795    1.1636 H   0  0  0  0  0  0  0  0  0  0  0  0
   -0.6460    1.8615    2.2340 H   0  0  0  0  0  0  0  0  0  0  0  0
   -1.1326    3.4312    1.5803 H   0  0  0  0  0  0  0  0  0  0  0  0
   -2.1746    2.0333    1.3694 H   0  0  0  0  0  0  0  0  0  0  0  0
  1  2  2  0
  2  3  1  0
  3  4  2  0
  4  5  1  0
  5  6  2  0
  5  7  1  0
  7  8  2  0
  8  9  1  0
  6  1  1  0
  9  4  1  0
  3 10  1  0
  2 11  1  0
 11 12  1  0
 10 13  1  0
  8 14  1  0
 14 15  1  0
 11 16  1  0
  6 17  1  0
 12 18  1  0
 10 19  1  0
  1 20  1  0
  7 21  1  0
  9 22  1  0
 10 23  1  0
 11 24  1  0
 12 25  1  0
 12 26  1  0
 13 27  1  0
 13 28  1  0
 13 29  1  0
 14 30  1  0
 14 31  1  0
 15 32  1  0
 15 33  1  0
 15 34  1  0
 16 35  1  0
 16 36  1  0
 16 37  1  0
 17 38  1  0
 17 39  1  0
 17 40  1  0
 18 41  1  0
 18 42  1  0
 18 43  1  0
 19 44  1  0
 19 45  1  0
 19 46  1  0
M  END
$$$$
